PHYSICAL_PROBLEM=   RANS
KIND_TURB_MODEL=   SA
MATH_PROBLEM=   DIRECT
RESTART_SOL=   NO
NZONES =   1
MACH_NUMBER=   0.05
AOA=   0.0
FREESTREAM_PRESSURE=   140000.0
FREESTREAM_TEMPERATURE=    300.0
FREESTREAM_DENSITY=   1.7418
FREESTREAM_OPTION=   TEMPERATURE_FS
FREESTREAM_TURBULENCEINTENSITY =   0.03
FREESTREAM_TURB2LAMVISCRATIO =   100.0
INIT_OPTION=   TD_CONDITIONS
REF_ORIGIN_MOMENT_X =   0.00
REF_ORIGIN_MOMENT_Y =   0.00
REF_ORIGIN_MOMENT_Z =   0.00
REF_LENGTH=   1.0
REF_AREA=   1.0
REF_DIMENSIONALIZATION=   DIMENSIONAL
FLUID_MODEL=   IDEAL_GAS
GAMMA_VALUE=   1.4
GAS_CONSTANT=   287.058
VISCOSITY_MODEL=   SUTHERLAND
MU_REF=   1.716E-5
MU_T_REF=   273.15
SUTHERLAND_CONSTANT=   110.4
CONDUCTIVITY_MODEL=   CONSTANT_PRANDTL
MARKER_HEATFLUX=   ( wall1, 0.0, wall2, 0.0)
%MARKER_EULER = (wall1, wall2)
MARKER_PERIODIC=   ( periodic1, periodic2, 0.0, 0.0, 0.0, 0.0, 0.0, 0.0, 0.0, 0.0744043478, 0.0)
MARKER_TURBOMACHINERY=  (inflow,outmix)
MARKER_GILES=   (inflow, TOTAL_CONDITIONS_PT, 169623.33, 305.76, 1.0, 0.0, 0.0,1.0,1.0, outmix, STATIC_PRESSURE, 99741.00, 0.0, 0.0, 0.0, 0.0,1.0,1.0)
SPATIAL_FOURIER=   NO
TURBOMACHINERY_KIND=   AXIAL
TURBULENT_MIXINGPLANE=   YES
RAMP_OUTLET_PRESSURE=   NO
RAMP_OUTLET_PRESSURE_COEFF=   (140000.0, 10.0, 2000)
AVERAGE_PROCESS_KIND=   MIXEDOUT
PERFORMANCE_AVERAGE_PROCESS_KIND=   MIXEDOUT
MIXEDOUT_COEFF=   (1.0, 1.0E-05, 15)
AVERAGE_MACH_LIMIT=   0.05
MARKER_PLOTTING  =   (wall1)
MARKER_MONITORING=   (wall1)
KIND_ADAPT=   PERIODIC
NUM_METHOD_GRAD=   WEIGHTED_LEAST_SQUARES
CFL_NUMBER=   10.0
CFL_ADAPT=   NO
CFL_ADAPT_PARAM=   ( 1.3, 1.2, 1.0, 10.0)
FFD_TOLERANCE=   1E-10
FFD_ITERATIONS=   500
FFD_DEFINITION=   (FFD_BoxTag, 0.15136230, 0.01494119, 0.0, 0.19135656, -0.0265108,0.0, 0.1904628, -0.05923811, 0.0, 0.1372861, -0.00226304, 0.0, 0.0, 0.0, 0.0, 0.0, 0.0, 0.0, 0.0, 0.0, 0.0, 0.0, 0.0, 0.0)
FFD_DEGREE=   (2, 2, 0)
FFD_CONTINUITY=   2ND_DERIVATIVE
DV_KIND=   SURFACE_FILE
MOTION_FILENAME =   MoveSurface.txt
VISUALIZE_DEFORMATION=   YES
MARKER_MOVING =   (wall1)
DV_MARKER=   ( wall1 )
DEFORM_LINEAR_ITER =   100
DEFINITION_DV=   ( 15, 1.0 | wall1 | FFD_BoxTag, 0, 0, 0.0, 1.0 ); ( 15, 1.0 | wall1 | FFD_BoxTag, 1, 0, 0.0, 1.0 ); ( 15, 1.0 | wall1 | FFD_BoxTag, 2, 0, 0.0, 1.0 ); ( 15, 1.0 | wall1 | FFD_BoxTag, 0, 1, 0.0, 1.0 ); ( 15, 1.0 | wall1 | FFD_BoxTag, 1, 1, 0.0, 1.0 ); ( 15, 1.0 | wall1 | FFD_BoxTag, 2, 1, 0.0, 1.0 ); ( 15, 1.0 | wall1 | FFD_BoxTag, 0, 2, 0.0, 1.0 ); ( 15, 1.0 | wall1 | FFD_BoxTag, 1, 2, 0.0, 1.0 ); ( 15, 1.0 | wall1 | FFD_BoxTag, 2, 2, 0.0, 1.0 )
OPT_OBJECTIVE=  ENTROPY_GENERATION
DEFORM_NONLINEAR_ITER=   1
DEFORM_CONSOLE_OUTPUT=   YES
DEFORM_TOL_FACTOR =   0.001
DEFORM_STIFFNESS_TYPE=   INVERSE_VOLUME
MACH_MOTION=   0.35
TRANSLATION_RATE_Y=   0.0 -150.0
LINEAR_SOLVER=   FGMRES
LINEAR_SOLVER_PREC=   LU_SGS
LINEAR_SOLVER_ERROR=   1E-4
LINEAR_SOLVER_ITER=   10
CONV_NUM_METHOD_FLOW=   ROE
MUSCL_FLOW=   NO
SLOPE_LIMITER_FLOW=   VAN_ALBADA_EDGE
ENTROPY_FIX_COEFF=   0.01
TIME_DISCRE_FLOW=   EULER_IMPLICIT
RELAXATION_FACTOR_FLOW=   1.0
CONV_NUM_METHOD_TURB=   SCALAR_UPWIND
MUSCL_TURB=   NO
SLOPE_LIMITER_TURB=   VENKATAKRISHNAN
TIME_DISCRE_TURB=   EULER_IMPLICIT
CFL_REDUCTION_TURB=   0.4
RELAXATION_FACTOR_TURB=   0.95
OBJECTIVE_FUNCTION= ENTROPY_GENERATION
EXT_ITER= 2000
CONV_CRITERIA=   RESIDUAL
RESIDUAL_FUNC_FLOW=   RHO_ENERGY
RESIDUAL_REDUCTION=   6
RESIDUAL_MINVAL=   -16
STARTCONV_ITER=   10
CAUCHY_ELEMS=   100
CAUCHY_EPS=   1E-6
CAUCHY_FUNC_FLOW=   DRAG
MESH_FILENAME=  ../meshout_ffd.su2
MESH_FORMAT=   SU2
MESH_OUT_FILENAME=   meshout.su2
SOLUTION_FLOW_FILENAME=   restart_flow.dat
SOLUTION_ADJ_FILENAME=   restart_adj.dat
OUTPUT_FORMAT=   TECPLOT
CONV_FILENAME=   history
RESTART_FLOW_FILENAME=   restart_flow.dat
RESTART_ADJ_FILENAME=   restart_adj.dat
VOLUME_FLOW_FILENAME=   flow
VOLUME_ADJ_FILENAME=   adjoint
GRAD_OBJFUNC_FILENAME=   of_grad.dat
SURFACE_FLOW_FILENAME=   surface_flow
SURFACE_ADJ_FILENAME=   surface_adjoint
WRT_SOL_FREQ=   100
WRT_CON_FREQ=   1
DV_PARAM=   ( 1, 0.5 )
DV_VALUE=   0.001
